@<TRIPOS>MOLECULE
27
   46    46     1     1     1
SMALL
USER_CHARGES
@<TRIPOS>ATOM
    1 C1        -0.464     3.134    -6.745 C.3        1 ****   -0.0726
    2 C2        -0.595     1.625    -6.707 C.3        1 ****   -0.0289
    3 S1        -0.230     0.976    -5.078 S.O2       1 ****    1.3647
    4 O1        -1.177     1.536    -4.139 O.2        1 ****   -0.5710
    5 O2         1.195     1.052    -4.839 O.2        1 ****   -0.5710
    6 N1        -0.617    -0.666    -5.272 N.am       1 ****   -0.3568
    7 C3         0.299    -1.483    -6.117 C.3        1 ****   -0.0117
    8 C4        -0.518    -2.226    -7.191 C.3        1 ****    0.0057
    9 N2         0.351    -3.014    -8.074 N.3        1 ****   -0.3133
   10 C5        -0.440    -3.676    -9.120 C.3        1 ****    0.0187
   11 C6         0.448    -4.471   -10.084 C.3        1 ****    0.0586
   12 O3        -0.387    -5.123   -11.044 O.3        1 ****   -0.3834
   13 C7         0.379    -5.860   -11.988 C.3        1 ****    0.0355
   14 C8        -1.098    -1.372    -4.049 C.3        1 ****   -0.0005
   15 C9        -0.120    -1.305    -2.869 C.3        1 ****    0.0576
   16 O4        -0.541    -2.244    -1.876 O.3        1 ****   -0.3722
   17 C10       -0.025    -2.114    -0.527 C.3        1 ****    0.1041
   18 C11        1.442    -1.739    -0.288 C.3        1 ****    0.0752
   19 O5         1.068    -0.653     0.594 O.3        1 ****   -0.3759
   20 C12       -0.331    -0.841     0.269 C.3        1 ****    0.0752
   21 H1         0.549     3.448    -6.474 H          1 ****    0.0218
   22 H2        -1.159     3.609    -6.045 H          1 ****    0.0218
   23 H3        -0.683     3.510    -7.749 H          1 ****    0.0218
   24 H4         0.102     1.168    -7.415 H          1 ****    0.0155
   25 H5        -1.613     1.319    -6.963 H          1 ****    0.0155
   26 H6         0.858    -2.195    -5.498 H          1 ****    0.0418
   27 H7         1.041    -0.849    -6.613 H          1 ****    0.0418
   28 H8        -1.253    -2.880    -6.706 H          1 ****    0.0440
   29 H9        -1.075    -1.487    -7.780 H          1 ****    0.0440
   30 H10        0.836    -3.726    -7.526 H          1 ****    0.1223
   31 H11       -1.177    -4.354    -8.671 H          1 ****    0.0451
   32 H12       -1.005    -2.935    -9.699 H          1 ****    0.0451
   33 H13        1.023    -5.226    -9.535 H          1 ****    0.0579
   34 H14        1.143    -3.797   -10.599 H          1 ****    0.0579
   35 H15        0.953    -6.644   -11.486 H          1 ****    0.0529
   36 H16        1.049    -5.195   -12.541 H          1 ****    0.0529
   37 H17       -0.309    -6.330   -12.696 H          1 ****    0.0529
   38 H18       -2.071    -0.961    -3.753 H          1 ****    0.0429
   39 H19       -1.303    -2.422    -4.294 H          1 ****    0.0429
   40 H20       -0.090    -0.296    -2.450 H          1 ****    0.0579
   41 H21        0.890    -1.578    -3.192 H          1 ****    0.0579
   42 H22       -0.305    -3.012     0.038 H          1 ****    0.0652
   43 H23        2.031    -2.497     0.237 H          1 ****    0.0594
   44 H24        2.012    -1.371    -1.145 H          1 ****    0.0594
   45 H25       -0.936    -0.993     1.168 H          1 ****    0.0594
   46 H26       -0.728     0.009    -0.293 H          1 ****    0.0620
@<TRIPOS>BOND
     1    1    2 1  
     2    1   21 1  
     3    1   22 1  
     4    1   23 1  
     5    2    3 1  
     6    2   24 1  
     7    2   25 1  
     8    3    4 2  
     9    3    5 2  
    10    3    6 am 
    11    6    7 1  
    12    6   14 1  
    13    7    8 1  
    14    7   26 1  
    15    7   27 1  
    16    8    9 1  
    17    8   28 1  
    18    8   29 1  
    19    9   10 1  
    20    9   30 1  
    21   10   11 1  
    22   10   31 1  
    23   10   32 1  
    24   11   12 1  
    25   11   33 1  
    26   11   34 1  
    27   12   13 1  
    28   13   35 1  
    29   13   36 1  
    30   13   37 1  
    31   14   15 1  
    32   14   38 1  
    33   14   39 1  
    34   15   16 1  
    35   15   40 1  
    36   15   41 1  
    37   16   17 1  
    38   17   18 1  
    39   17   42 1  
    40   18   19 1  
    41   18   43 1  
    42   18   44 1  
    43   19   20 1  
    44   20   17 1  
    45   20   45 1  
    46   20   46 1  
@<TRIPOS>SUBSTRUCTURE
1   ****   1

$$$$

