@<TRIPOS>MOLECULE
1
   47    47     1     1     1
SMALL
USER_CHARGES
@<TRIPOS>ATOM
    1 C1         1.784     2.211    -8.170 C.3        1 ****    0.0354
    2 O1         0.729     1.499    -7.537 O.3        1 ****   -0.3848
    3 C2         1.214     0.656    -6.496 C.3        1 ****    0.0451
    4 C3         0.028    -0.063    -5.869 C.3        1 ****   -0.0367
    5 C4         0.479    -0.967    -4.735 C.3        1 ****   -0.0239
    6 S1        -0.898    -1.847    -4.010 S.O2       1 ****    1.3649
    7 O2        -1.863    -0.872    -3.547 O.2        1 ****   -0.5710
    8 O3        -1.280    -2.926    -4.895 O.2        1 ****   -0.5710
    9 N1        -0.154    -2.535    -2.651 N.am       1 ****   -0.3602
   10 C5         0.650    -3.751    -2.890 C.3        1 ****   -0.0366
   11 C6        -0.992    -2.638    -1.429 C.3        1 ****    0.0047
   12 C7        -0.501    -1.770    -0.309 C.3        1 ****    0.0944
   13 O4         0.914    -1.515    -0.268 O.3        1 ****   -0.3683
   14 C8         0.067    -0.388    -0.533 C.3        1 ****    0.0853
   15 C9         0.007     0.673     0.525 C.3        1 ****   -0.0241
   16 C10        0.549     0.264     1.896 C.3        1 ****   -0.0505
   17 C11        0.437     1.410     2.904 C.3        1 ****   -0.0498
   18 C12        0.997     1.004     4.268 C.3        1 ****   -0.0354
   19 C13        0.871     2.119     5.266 C.2        1 ****   -0.0918
   20 C14        0.159     2.036     6.397 C.2        1 ****   -0.1031
   21 H1         2.496     1.515    -8.626 H          1 ****    0.0529
   22 H2         2.297     2.856    -7.450 H          1 ****    0.0529
   23 H3         1.355     2.837    -8.957 H          1 ****    0.0529
   24 H4         1.730     1.264    -5.744 H          1 ****    0.0565
   25 H5         1.920    -0.071    -6.914 H          1 ****    0.0565
   26 H6        -0.699     0.676    -5.509 H          1 ****    0.0278
   27 H7        -0.500    -0.643    -6.637 H          1 ****    0.0278
   28 H8         1.193    -1.713    -5.096 H          1 ****    0.0159
   29 H9         0.953    -0.386    -3.937 H          1 ****    0.0159
   30 H10        1.332    -3.610    -3.732 H          1 ****    0.0368
   31 H11        0.006    -4.613    -3.086 H          1 ****    0.0368
   32 H12        1.267    -3.966    -2.011 H          1 ****    0.0368
   33 H13       -2.039    -2.390    -1.635 H          1 ****    0.0433
   34 H14       -1.011    -3.677    -1.076 H          1 ****    0.0433
   35 H15       -1.012    -1.980     0.621 H          1 ****    0.0643
   36 H16        0.042     0.024    -1.533 H          1 ****    0.0631
   37 H17        0.576     1.539     0.166 H          1 ****    0.0294
   38 H18       -1.034     1.002     0.622 H          1 ****    0.0294
   39 H19        1.599    -0.040     1.804 H          1 ****    0.0267
   40 H20       -0.003    -0.604     2.276 H          1 ****    0.0267
   41 H21       -0.615     1.704     3.007 H          1 ****    0.0269
   42 H22        0.979     2.286     2.526 H          1 ****    0.0269
   43 H23        0.481     0.105     4.627 H          1 ****    0.0309
   44 H24        2.058     0.744     4.171 H          1 ****    0.0309
   45 H25        1.408     3.040     5.047 H          1 ****    0.0569
   46 H26       -0.388     1.137     6.663 H          1 ****    0.0534
   47 H27        0.111     2.875     7.085 H          1 ****    0.0558
@<TRIPOS>BOND
     1    1    2 1  
     2    1   21 1  
     3    1   22 1  
     4    1   23 1  
     5    2    3 1  
     6    3    4 1  
     7    3   24 1  
     8    3   25 1  
     9    4    5 1  
    10    4   26 1  
    11    4   27 1  
    12    5    6 1  
    13    5   28 1  
    14    5   29 1  
    15    6    7 2  
    16    6    8 2  
    17    6    9 am 
    18    9   10 1  
    19    9   11 1  
    20   10   30 1  
    21   10   31 1  
    22   10   32 1  
    23   11   12 1  
    24   11   33 1  
    25   11   34 1  
    26   12   13 1  
    27   12   35 1  
    28   13   14 1  
    29   14   12 1  
    30   14   15 1  
    31   14   36 1  
    32   15   16 1  
    33   15   37 1  
    34   15   38 1  
    35   16   17 1  
    36   16   39 1  
    37   16   40 1  
    38   17   18 1  
    39   17   41 1  
    40   17   42 1  
    41   18   19 1  
    42   18   43 1  
    43   18   44 1  
    44   19   20 2  
    45   19   45 1  
    46   20   46 1  
    47   20   47 1  
@<TRIPOS>SUBSTRUCTURE
1   ****   1

$$$$

