@<TRIPOS>MOLECULE
109
57  58  1  0  0
SMALL
USER_CHARGES
@<TRIPOS>ATOM
    1 C1        10.9320    -2.2770    -2.4060 C.3        1 ****  -0.0654
    2 C2         9.9210    -1.2540    -1.9130 C.3        1 ****  -0.0550
    3 C3         9.0950    -1.7980    -0.7450 C.3        1 ****  -0.0407
    4 C4         8.0870    -0.7520    -0.2460 C.3        1 ****  -0.0022
    5 N1         7.1830    -1.2780     0.7980 N.3        1 ****  -0.3048
    6 C5         7.8850    -1.4400     2.0710 C.3        1 ****  -0.0134
    7 C6         6.0070    -0.3790     0.9230 C.3        1 ****  0.0153
    8 C7         4.8580    -0.8610     1.8550 C.3        1 ****  0.0410
    9 N2         5.0520    -0.4240     3.2600 N.3        1 ****  -0.3247
   10 C8         3.5090    -0.2920     1.3550 C.3        1 ****  0.0697
   11 O1         2.4530    -0.8120     2.1890 O.3        1 ****  -0.3436
   12 C9         1.2490    -0.2710     1.8240 C.ar       1 ****  0.0884
   13 C10        0.8930     0.9790     2.3320 C.ar       1 ****  -0.0309
   14 C11       -0.3540     1.5220     2.0270 C.ar       1 ****  -0.0571
   15 C12       -1.2510     0.8130     1.2230 C.ar       1 ****  -0.0309
   16 C13       -0.9010    -0.4420     0.7150 C.ar       1 ****  0.0883
   17 O2        -1.7540    -1.1940    -0.0470 O.3        1 ****  -0.3450
   18 C14       -2.4560    -0.4650    -1.0590 C.3        1 ****  0.0561
   19 C15       -2.9650    -1.3950    -2.1230 C.3        1 ****  -0.0173
   20 C16       -2.1440    -2.5660    -2.6050 C.3        1 ****  -0.0479
   21 C17       -3.4010    -2.8060    -1.8110 C.3        1 ****  -0.0479
   22 C18        0.3440    -0.9900     1.0400 C.ar       1 ****  0.0777
   23 C19        0.7230    -2.3140     0.5300 C.2        1 ****  0.1645
   24 O3         1.5270    -2.4040    -0.3930 O.2        1 ****  -0.2943
   25 C20        0.0850    -3.5050     1.1890 C.3        1 ****  -0.0008
   26 H1        10.4320    -3.1920    -2.7420 H          1 ****  0.0230
   27 H2        11.6380    -2.5430    -1.6130 H          1 ****  0.0230
   28 H3        11.5020    -1.8720    -3.2470 H          1 ****  0.0230
   29 H4         9.2580    -0.9760    -2.7410 H          1 ****  0.0264
   30 H5        10.4510    -0.3460    -1.6030 H          1 ****  0.0264
   31 H6         8.5590    -2.7000    -1.0670 H          1 ****  0.0279
   32 H7         9.7780    -2.0960     0.0580 H          1 ****  0.0279
   33 H8         7.4940    -0.4440    -1.1170 H          1 ****  0.0430
   34 H9         8.6120     0.1450     0.1100 H          1 ****  0.0430
   35 H10        8.1420    -0.4780     2.5280 H          1 ****  0.0394
   36 H11        8.8090    -2.0150     1.9590 H          1 ****  0.0394
   37 H12        7.2820    -2.0230     2.7710 H          1 ****  0.0394
   38 H13        5.5780    -0.2770    -0.0830 H          1 ****  0.0447
   39 H14        6.3270     0.6300     1.2180 H          1 ****  0.0447
   40 H15        4.7890    -1.9560     1.8430 H          1 ****  0.0500
   41 H16        5.7730    -1.0000     3.6870 H          1 ****  0.1187
   42 H17        4.1920    -0.6520     3.7660 H          1 ****  0.1187
   43 H18        3.3380    -0.6020     0.3170 H          1 ****  0.0589
   44 H19        3.5290     0.8060     1.3970 H          1 ****  0.0589
   45 H20        1.5810     1.5230     2.9750 H          1 ****  0.0650
   46 H21       -0.6350     2.4930     2.4280 H          1 ****  0.0624
   47 H22       -2.2270     1.2470     1.0250 H          1 ****  0.0650
   48 H23       -3.3140     0.0470    -0.6080 H          1 ****  0.0575
   49 H24       -1.7990     0.2760    -1.5330 H          1 ****  0.0575
   50 H25       -3.5330    -0.8520    -2.8710 H          1 ****  0.0326
   51 H26       -1.1920    -2.7720    -2.1250 H          1 ****  0.0270
   52 H27       -2.1590    -2.7970    -3.6640 H          1 ****  0.0270
   53 H28       -4.2640    -3.1990    -2.3360 H          1 ****  0.0270
   54 H29       -3.2960    -3.1770    -0.7980 H          1 ****  0.0270
   55 H30       -0.9840    -3.5410     0.9690 H          1 ****  0.0313
   56 H31        0.2490    -3.4670     2.2700 H          1 ****  0.0313
   57 H32        0.5500    -4.4190     0.8060 H          1 ****  0.0339
@<TRIPOS>BOND
    1     1     2 1
    2     1    26 1
    3     1    27 1
    4     1    28 1
    5     2     3 1
    6     2    29 1
    7     2    30 1
    8     3     4 1
    9     3    31 1
   10     3    32 1
   11     4     5 1
   12     4    33 1
   13     4    34 1
   14     5     6 1
   15     5     7 1
   16     6    35 1
   17     6    36 1
   18     6    37 1
   19     7     8 1
   20     7    38 1
   21     7    39 1
   22     8     9 1
   23     8    10 1
   24     8    40 1
   25     9    41 1
   26     9    42 1
   27    10    11 1
   28    10    43 1
   29    10    44 1
   30    11    12 1
   31    12    13 ar
   32    13    14 ar
   33    13    45 1
   34    14    15 ar
   35    14    46 1
   36    15    16 ar
   37    15    47 1
   38    16    17 1
   39    16    22 ar
   40    17    18 1
   41    18    19 1
   42    18    48 1
   43    18    49 1
   44    19    20 1
   45    19    50 1
   46    20    21 1
   47    20    51 1
   48    20    52 1
   49    21    19 1
   50    21    53 1
   51    21    54 1
   52    22    12 ar
   53    22    23 1
   54    23    24 2
   55    23    25 1
   56    25    55 1
   57    25    56 1
   58    25    57 1
@<TRIPOS>SUBSTRUCTURE
1   ****   1

