@<TRIPOS>MOLECULE
52
58  59  1  0  0
SMALL
USER_CHARGES
@<TRIPOS>ATOM
    1 C1        12.3050    -0.7780    -0.5080 C.3        1 ****  -0.0654
    2 C2        11.0000    -0.0100    -0.3730 C.3        1 ****  -0.0550
    3 C3         9.8390    -0.9380    -0.0080 C.3        1 ****  -0.0407
    4 C4         8.5260    -0.1540     0.1300 C.3        1 ****  -0.0019
    5 N1         7.3330    -1.0020     0.3040 N.3        1 ****  -0.3033
    6 C5         7.3850    -1.8850     1.4820 C.3        1 ****  -0.0019
    7 C6         7.4200    -1.1870     2.8490 C.3        1 ****  -0.0407
    8 C7         7.4630    -2.2110     3.9870 C.3        1 ****  -0.0550
    9 C8         7.4940    -1.5310     5.3470 C.3        1 ****  -0.0654
   10 C9         6.1140    -0.1780     0.2200 C.3        1 ****  0.0003
   11 C10        4.8080    -0.9780     0.2270 C.3        1 ****  -0.0163
   12 C11        3.6090    -0.0750    -0.0570 C.3        1 ****  0.0545
   13 O1         2.4350    -0.8830     0.0090 O.3        1 ****  -0.3456
   14 C12        1.2080    -0.3080    -0.2140 C.ar       1 ****  0.0816
   15 C13        1.0600     1.0580    -0.5060 C.ar       1 ****  -0.0314
   16 C14       -0.1990     1.6010    -0.7060 C.ar       1 ****  -0.0582
   17 C15       -1.3100     0.7820    -0.6080 C.ar       1 ****  -0.0430
   18 C16       -1.1700    -0.5870    -0.3170 C.ar       1 ****  0.0484
   19 Cl1       -2.6770    -1.4390    -0.2130 Cl         1 ****  -0.0839
   20 C17        0.0950    -1.2060    -0.1160 C.ar       1 ****  0.0254
   21 C18        0.3500    -2.7800     0.2170 C.3        1 ****  0.0923
   22 N2        -0.8490    -3.6480     0.2190 N.3        1 ****  -0.3175
   23 C19        1.1810    -3.1650     1.4700 C.3        1 ****  0.0713
   24 O2         2.1340    -3.9240     0.6850 O.3        1 ****  -0.3767
   25 C20        1.4490    -3.5740    -0.5440 C.3        1 ****  0.0713
   26 H1        12.2320    -1.5400    -1.2900 H          1 ****  0.0230
   27 H2        12.5690    -1.2730     0.4320 H          1 ****  0.0230
   28 H3        13.1200    -0.0970    -0.7730 H          1 ****  0.0230
   29 H4        10.7860     0.5020    -1.3180 H          1 ****  0.0264
   30 H5        11.1140     0.7630     0.3960 H          1 ****  0.0264
   31 H6         9.7300    -1.7080    -0.7830 H          1 ****  0.0279
   32 H7        10.0810    -1.4470     0.9310 H          1 ****  0.0279
   33 H8         8.4020     0.4310    -0.7910 H          1 ****  0.0430
   34 H9         8.6130     0.5730     0.9480 H          1 ****  0.0430
   35 H10        6.5340    -2.5750     1.4520 H          1 ****  0.0430
   36 H11        8.2510    -2.5520     1.3950 H          1 ****  0.0430
   37 H12        6.5350    -0.5540     2.9760 H          1 ****  0.0279
   38 H13        8.3010    -0.5390     2.9220 H          1 ****  0.0279
   39 H14        8.3500    -2.8470     3.8820 H          1 ****  0.0264
   40 H15        6.5850    -2.8650     3.9320 H          1 ****  0.0264
   41 H16        6.6030    -0.9140     5.4970 H          1 ****  0.0230
   42 H17        8.3770    -0.8910     5.4450 H          1 ****  0.0230
   43 H18        7.5270    -2.2800     6.1440 H          1 ****  0.0230
   44 H19        6.1450     0.3850    -0.7220 H          1 ****  0.0431
   45 H20        6.0920     0.5690     1.0240 H          1 ****  0.0431
   46 H21        4.6500    -1.4700     1.1940 H          1 ****  0.0303
   47 H22        4.8430    -1.7780    -0.5240 H          1 ****  0.0303
   48 H23        3.7080     0.3600    -1.0590 H          1 ****  0.0572
   49 H24        3.5610     0.7180     0.6980 H          1 ****  0.0572
   50 H25        1.9130     1.7250    -0.5810 H          1 ****  0.0650
   51 H26       -0.3130     2.6580    -0.9320 H          1 ****  0.0623
   52 H27       -2.2980     1.2130    -0.7580 H          1 ****  0.0638
   53 H28       -1.3330    -3.6590    -0.6790 H          1 ****  0.1194
   54 H29       -1.5570    -3.3470     0.8890 H          1 ****  0.1194
   55 H30        0.6900    -3.7980     2.2180 H          1 ****  0.0590
   56 H31        1.6760    -2.3440     1.9970 H          1 ****  0.0590
   57 H32        1.1290    -4.4730    -1.0850 H          1 ****  0.0590
   58 H33        2.1010    -3.0040    -1.2120 H          1 ****  0.0615
@<TRIPOS>BOND
    1     1     2 1
    2     1    26 1
    3     1    27 1
    4     1    28 1
    5     2     3 1
    6     2    29 1
    7     2    30 1
    8     3     4 1
    9     3    31 1
   10     3    32 1
   11     4     5 1
   12     4    33 1
   13     4    34 1
   14     5     6 1
   15     5    10 1
   16     6     7 1
   17     6    35 1
   18     6    36 1
   19     7     8 1
   20     7    37 1
   21     7    38 1
   22     8     9 1
   23     8    39 1
   24     8    40 1
   25     9    41 1
   26     9    42 1
   27     9    43 1
   28    10    11 1
   29    10    44 1
   30    10    45 1
   31    11    12 1
   32    11    46 1
   33    11    47 1
   34    12    13 1
   35    12    48 1
   36    12    49 1
   37    13    14 1
   38    14    15 ar
   39    15    16 ar
   40    15    50 1
   41    16    17 ar
   42    16    51 1
   43    17    18 ar
   44    17    52 1
   45    18    19 1
   46    18    20 ar
   47    20    14 ar
   48    20    21 1
   49    21    22 1
   50    21    23 1
   51    22    53 1
   52    22    54 1
   53    23    24 1
   54    23    55 1
   55    23    56 1
   56    24    25 1
   57    25    21 1
   58    25    57 1
   59    25    58 1
@<TRIPOS>SUBSTRUCTURE
1   ****   1

