@<TRIPOS>MOLECULE
26
62  64  1  0  0
SMALL
USER_CHARGES
@<TRIPOS>ATOM
    1 C1         5.9430    -0.1080     2.9710 C.3        1 ****  -0.0525
    2 C2         6.0820     0.6180     1.6360 C.3        1 ****  -0.0046
    3 N1         5.8350    -0.1800     0.4300 N.3        1 ****  -0.2998
    4 C3         4.4580    -0.7180     0.3500 C.3        1 ****  0.0222
    5 C4         3.3340     0.3320     0.4000 C.3        1 ****  0.0660
    6 O1         2.0840    -0.3360     0.1980 O.3        1 ****  -0.3448
    7 C5         0.9560     0.4390     0.2340 C.ar       1 ****  0.0765
    8 C6         0.9200     1.8250     0.3660 C.ar       1 ****  -0.0317
    9 C7        -0.3070     2.4870     0.4020 C.ar       1 ****  -0.0581
   10 C8        -1.5020     1.7680     0.2940 C.ar       1 ****  -0.0441
   11 C9        -1.4930     0.3820     0.1170 C.ar       1 ****  0.0175
   12 N2        -2.6550    -0.3970     0.0760 N.pl3      1 ****  -0.2810
   13 C10       -3.9040     0.2060    -0.3680 C.3        1 ****  0.0615
   14 C11       -4.9090    -0.8900    -0.5860 C.ar       1 ****  0.1582
   15 N3        -4.6650    -1.9590    -1.4350 N.ar       1 ****  -0.1794
   16 N4        -5.7510    -2.7180    -1.2010 N.ar       1 ****  -0.1667
   17 C12       -6.6030    -2.1280    -0.2960 C.ar       1 ****  0.1139
   18 C13       -7.8830    -2.7460     0.1340 C.3        1 ****  0.0881
   19 C14       -7.7200    -4.0850     0.8030 C.2        1 ****  0.2653
   20 O2        -8.2060    -4.4220     1.8700 O.2        1 ****  -0.2664
   21 O3        -7.0080    -4.9700     0.0720 O.3        1 ****  -0.3315
   22 N5        -6.1010    -0.9250     0.1120 N.ar       1 ****  -0.2212
   23 C15       -0.2490    -0.2670     0.1230 C.ar       1 ****  -0.0138
   24 C16        6.8100    -1.2700     0.1840 C.3        1 ****  0.0138
   25 C17        8.2970    -0.9580    -0.1930 C.3        1 ****  0.0220
   26 C18        9.1920    -0.4660     0.9540 C.3        1 ****  -0.0351
   27 C19        9.8960     0.7610     0.4040 C.3        1 ****  -0.0389
   28 C20        9.9190     0.5040    -1.0890 C.3        1 ****  -0.0018
   29 N6         8.6250    -0.1290    -1.3820 N.3        1 ****  -0.3022
   30 C21        7.6190     0.8620    -1.7470 C.3        1 ****  -0.0131
   31 H1         6.6450    -0.9410     3.0610 H          1 ****  0.0243
   32 H2         4.9290    -0.4920     3.1200 H          1 ****  0.0243
   33 H3         6.1500     0.5870     3.7920 H          1 ****  0.0243
   34 H4         7.0680     1.0840     1.5760 H          1 ****  0.0427
   35 H5         5.4050     1.4810     1.6410 H          1 ****  0.0427
   36 H6         4.3390    -1.2490    -0.6040 H          1 ****  0.0454
   37 H7         4.2830    -1.4760     1.1240 H          1 ****  0.0454
   38 H8         3.4970     1.0690    -0.3960 H          1 ****  0.0585
   39 H9         3.3220     0.8250     1.3790 H          1 ****  0.0585
   40 H10        1.8230     2.4190     0.4520 H          1 ****  0.0650
   41 H11       -0.3380     3.5670     0.5240 H          1 ****  0.0624
   42 H12       -2.4360     2.3180     0.3550 H          1 ****  0.0639
   43 H13       -2.5000    -1.2800    -0.4090 H          1 ****  0.1286
   44 H14       -3.7720     0.7430    -1.3140 H          1 ****  0.0516
   45 H15       -4.2910     0.8990     0.3870 H          1 ****  0.0516
   46 H16       -5.8660    -3.6300    -1.6300 H          1 ****  0.1574
   47 H17       -8.3780    -2.0730     0.8430 H          1 ****  0.0451
   48 H18       -8.5520    -2.8650    -0.7250 H          1 ****  0.0451
   49 H19       -6.9990    -5.7740     0.6360 H          1 ****  0.2213
   50 H20       -0.2090    -1.3510     0.0400 H          1 ****  0.0667
   51 H21        6.4360    -1.8530    -0.6710 H          1 ****  0.0446
   52 H22        6.8080    -1.9700     1.0290 H          1 ****  0.0446
   53 H23        8.7000    -1.9500    -0.4530 H          1 ****  0.0480
   54 H24        9.9420    -1.2350     1.1810 H          1 ****  0.0283
   55 H25        8.6750    -0.2520     1.8900 H          1 ****  0.0283
   56 H26       10.8990     0.8830     0.8230 H          1 ****  0.0280
   57 H27        9.3180     1.6640     0.6310 H          1 ****  0.0280
   58 H28       10.1090     1.4140    -1.6680 H          1 ****  0.0430
   59 H29       10.7200    -0.2050    -1.3330 H          1 ****  0.0430
   60 H30        7.9540     1.4290    -2.6230 H          1 ****  0.0394
   61 H31        7.4160     1.5820    -0.9480 H          1 ****  0.0394
   62 H32        6.6870     0.3780    -2.0530 H          1 ****  0.0423
@<TRIPOS>BOND
    1     1     2 1
    2     1    31 1
    3     1    32 1
    4     1    33 1
    5     2     3 1
    6     2    34 1
    7     2    35 1
    8     3     4 1
    9     3    24 1
   10     4     5 1
   11     4    36 1
   12     4    37 1
   13     5     6 1
   14     5    38 1
   15     5    39 1
   16     6     7 1
   17     7     8 ar
   18     8     9 ar
   19     8    40 1
   20     9    10 ar
   21     9    41 1
   22    10    11 ar
   23    10    42 1
   24    11    12 1
   25    11    23 ar
   26    12    13 1
   27    12    43 1
   28    13    14 1
   29    13    44 1
   30    13    45 1
   31    14    15 ar
   32    15    16 ar
   33    16    17 ar
   34    16    46 1
   35    17    18 1
   36    17    22 ar
   37    18    19 1
   38    18    47 1
   39    18    48 1
   40    19    20 2
   41    19    21 1
   42    21    49 1
   43    22    14 ar
   44    23     7 ar
   45    23    50 1
   46    24    25 1
   47    24    51 1
   48    24    52 1
   49    25    26 1
   50    25    53 1
   51    26    27 1
   52    26    54 1
   53    26    55 1
   54    27    28 1
   55    27    56 1
   56    27    57 1
   57    28    29 1
   58    28    58 1
   59    28    59 1
   60    29    25 1
   61    29    30 1
   62    30    60 1
   63    30    61 1
   64    30    62 1
@<TRIPOS>SUBSTRUCTURE
1   ****   1

