@<TRIPOS>MOLECULE
56
59  61  1  0  0
SMALL
USER_CHARGES
@<TRIPOS>ATOM
    1 N1         3.1110    -1.7280     3.4400 N.3        1 ****  -0.2714
    2 N2         3.1630    -1.0040     2.1940 N.3        1 ****  -0.2578
    3 C1         2.5250    -1.7860     1.1190 C.3        1 ****  0.0392
    4 C2         2.7350    -1.1410    -0.2640 C.3        1 ****  0.1063
    5 C3         4.2040    -1.1950    -0.6860 C.3        1 ****  0.1174
    6 F1         4.6680    -2.4750    -0.6260 F          1 ****  -0.2482
    7 O1         1.9640    -1.8540    -1.2550 O.3        1 ****  -0.3360
    8 C4         0.7830    -1.2180    -1.5380 C.ar       1 ****  0.1060
    9 C5         0.7920    -0.0870    -2.3530 C.ar       1 ****  -0.0291
   10 C6        -0.4040     0.5650    -2.6380 C.ar       1 ****  -0.0592
   11 C7        -1.6020     0.0920    -2.0980 C.ar       1 ****  -0.0550
   12 C8        -1.6320    -1.0540    -1.2800 C.ar       1 ****  -0.0012
   13 C9        -2.9430    -1.5350    -0.6980 C.3        1 ****  0.0235
   14 N3        -3.7420    -0.4270    -0.1630 N.3        1 ****  -0.3085
   15 C10       -5.0020    -0.9130     0.4090 C.3        1 ****  0.0223
   16 C11       -5.8340     0.2210     0.9720 C.ar       1 ****  -0.0155
   17 C12       -6.0070     1.3900     0.2040 C.ar       1 ****  -0.0563
   18 C13       -6.7800     2.4560     0.6680 C.ar       1 ****  -0.0619
   19 C14       -7.4090     2.3710     1.9050 C.ar       1 ****  -0.0608
   20 C15       -7.2710     1.2150     2.6720 C.ar       1 ****  -0.0432
   21 C16       -6.4940     0.1450     2.2100 C.ar       1 ****  0.0450
   22 Cl1       -6.3980    -1.2500     3.2270 Cl         1 ****  -0.0840
   23 C17       -0.4270    -1.7420    -1.0630 C.ar       1 ****  0.1097
   24 O2        -0.3910    -2.9040    -0.3350 O.3        1 ****  -0.3404
   25 C18       -0.8290    -4.0270    -1.1230 C.3        1 ****  0.0796
   26 C19        0.1780    -5.1810    -1.0810 C.3        1 ****  0.0814
   27 C20        0.7790    -5.4840     0.2820 C.3        1 ****  -0.0223
   28 C21        2.0720    -6.1600    -0.1020 C.3        1 ****  -0.0271
   29 C22        2.4910    -5.3640    -1.3200 C.3        1 ****  0.0471
   30 O3         1.2860    -4.9330    -1.9670 O.3        1 ****  -0.3758
   31 H1         3.7560    -2.5240     3.4330 H          1 ****  0.1373
   32 H2         2.1830    -2.1120     3.6420 H          1 ****  0.1373
   33 H3         2.6900    -0.0970     2.2800 H          1 ****  0.1410
   34 H4         1.4520    -1.8690     1.3280 H          1 ****  0.0471
   35 H5         2.9140    -2.8120     1.1000 H          1 ****  0.0471
   36 H6         2.4390    -0.0830    -0.2230 H          1 ****  0.0650
   37 H7         4.8370    -0.5800    -0.0390 H          1 ****  0.0652
   38 H8         4.3240    -0.8580    -1.7200 H          1 ****  0.0652
   39 H9         1.7240     0.2800    -2.7720 H          1 ****  0.0651
   40 H10       -0.4070     1.4460    -3.2750 H          1 ****  0.0623
   41 H11       -2.5260     0.6260    -2.3160 H          1 ****  0.0627
   42 H12       -3.4940    -2.0560    -1.4900 H          1 ****  0.0479
   43 H13       -2.7550    -2.2490     0.1110 H          1 ****  0.0479
   44 H14       -3.2050     0.0260     0.5770 H          1 ****  0.1228
   45 H15       -4.7690    -1.6530     1.1810 H          1 ****  0.0479
   46 H16       -5.6010    -1.4150    -0.3610 H          1 ****  0.0479
   47 H17       -5.5260     1.4740    -0.7710 H          1 ****  0.0626
   48 H18       -6.8890     3.3510     0.0600 H          1 ****  0.0622
   49 H19       -8.0110     3.1990     2.2700 H          1 ****  0.0623
   50 H20       -7.7750     1.1520     3.6330 H          1 ****  0.0638
   51 H21       -1.0220    -3.7520    -2.1690 H          1 ****  0.0599
   52 H22       -1.7720    -4.3690    -0.6820 H          1 ****  0.0599
   53 H23       -0.3150    -6.0800    -1.4740 H          1 ****  0.0627
   54 H24        0.1290    -6.1100     0.9000 H          1 ****  0.0294
   55 H25        1.0050    -4.5710     0.8420 H          1 ****  0.0294
   56 H26        2.8250    -6.1530     0.6910 H          1 ****  0.0291
   57 H27        1.8780    -7.2020    -0.3840 H          1 ****  0.0291
   58 H28        3.0580    -4.4730    -1.0340 H          1 ****  0.0566
   59 H29        3.0940    -5.9520    -2.0180 H          1 ****  0.0595
@<TRIPOS>BOND
    1     1     2 1
    2     1    31 1
    3     1    32 1
    4     2     3 1
    5     2    33 1
    6     3     4 1
    7     3    34 1
    8     3    35 1
    9     4     5 1
   10     4     7 1
   11     4    36 1
   12     5     6 1
   13     5    37 1
   14     5    38 1
   15     7     8 1
   16     8     9 ar
   17     9    10 ar
   18     9    39 1
   19    10    11 ar
   20    10    40 1
   21    11    12 ar
   22    11    41 1
   23    12    13 1
   24    12    23 ar
   25    13    14 1
   26    13    42 1
   27    13    43 1
   28    14    15 1
   29    14    44 1
   30    15    16 1
   31    15    45 1
   32    15    46 1
   33    16    17 ar
   34    17    18 ar
   35    17    47 1
   36    18    19 ar
   37    18    48 1
   38    19    20 ar
   39    19    49 1
   40    20    21 ar
   41    20    50 1
   42    21    16 ar
   43    21    22 1
   44    23     8 ar
   45    23    24 1
   46    24    25 1
   47    25    26 1
   48    25    51 1
   49    25    52 1
   50    26    27 1
   51    26    53 1
   52    27    28 1
   53    27    54 1
   54    27    55 1
   55    28    29 1
   56    28    56 1
   57    28    57 1
   58    29    30 1
   59    29    58 1
   60    29    59 1
   61    30    26 1
@<TRIPOS>SUBSTRUCTURE
1   ****   1

