@<TRIPOS>MOLECULE
96
64  67  1  0  0
SMALL
USER_CHARGES
@<TRIPOS>ATOM
    1 C1         3.7580    -3.7180     0.0800 C.3        1 ****  -0.0390
    2 N1         2.5810    -2.8760    -0.1570 N.am       1 ****  -0.3733
    3 S1         2.4770    -1.5110     0.8340 S.O2       1 ****  1.4167
    4 O1         3.6500    -0.6970     0.5940 O.2        1 ****  -0.5685
    5 O2         2.1390    -1.9610     2.1670 O.2        1 ****  -0.5685
    6 C2         1.0700    -0.6240     0.2180 C.ar       1 ****  -0.0105
    7 C3         1.1570     0.7740     0.1220 C.ar       1 ****  -0.0566
    8 C4         0.0460     1.5080    -0.3000 C.ar       1 ****  0.0359
    9 C5        -1.1340     0.8390    -0.6500 C.ar       1 ****  -0.0472
   10 C6        -1.2160    -0.5530    -0.5500 C.ar       1 ****  -0.0323
   11 C7        -0.1210    -1.2890    -0.0920 C.ar       1 ****  0.0662
   12 O3        -0.1530    -2.6520    -0.0480 O.3        1 ****  -0.3414
   13 C8        -1.2560    -3.2360     0.6810 C.3        1 ****  0.0930
   14 C9        -0.6400    -4.0640     1.8240 C.3        1 ****  0.0733
   15 O4         0.3110    -5.0010     1.2960 O.3        1 ****  -0.3820
   16 C10        0.9900    -5.6880     2.3420 C.3        1 ****  0.0356
   17 C11       -2.0580    -4.0980    -0.3080 C.3        1 ****  0.0218
   18 C12       -3.4440    -4.4130     0.1440 C.ar       1 ****  0.0796
   19 C13       -4.4310    -4.8800    -0.6740 C.ar       1 ****  0.0285
   20 N2        -5.4950    -5.0140     0.1720 N.ar       1 ****  -0.1515
   21 C14       -6.8160    -5.4790    -0.1970 C.3        1 ****  0.0514
   22 C15       -7.5890    -4.4220    -0.9450 C.ar       1 ****  -0.0315
   23 C16       -8.0100    -3.2520    -0.2930 C.ar       1 ****  -0.0577
   24 C17       -8.7200    -2.2700    -0.9850 C.ar       1 ****  -0.0620
   25 C18       -9.0200    -2.4470    -2.3340 C.ar       1 ****  -0.0623
   26 C19       -8.6090    -3.6050    -2.9930 C.ar       1 ****  -0.0620
   27 C20       -7.8980    -4.5880    -2.3030 C.ar       1 ****  -0.0577
   28 N3        -5.1730    -4.6730     1.4520 N.ar       1 ****  -0.0905
   29 N4        -3.8780    -4.2920     1.4450 N.ar       1 ****  -0.1408
   30 C21        0.0780     2.9900    -0.4310 C.2        1 ****  0.2430
   31 O5        -0.6330     3.5130    -1.2800 O.2        1 ****  -0.2720
   32 N5         0.9020     3.6590     0.4570 N.am       1 ****  -0.3085
   33 C22        1.0940     5.0790     0.5360 C.3        1 ****  0.0228
   34 C23       -0.0200     6.0690     0.3540 C.3        1 ****  -0.0330
   35 C24        1.0860     5.9830    -0.6630 C.3        1 ****  -0.0330
   36 H1         3.7480    -4.1190     1.0970 H          1 ****  0.0366
   37 H2         4.6810    -3.1610    -0.0970 H          1 ****  0.0366
   38 H3         3.7310    -4.5630    -0.6140 H          1 ****  0.0366
   39 H4         1.7030    -3.4070    -0.0830 H          1 ****  0.0909
   40 H5         2.0980     1.2680     0.3490 H          1 ****  0.0618
   41 H6        -1.9940     1.4020    -1.0110 H          1 ****  0.0631
   42 H7        -2.1350    -1.0470    -0.8560 H          1 ****  0.0649
   43 H8        -1.8960    -2.4640     1.1290 H          1 ****  0.0637
   44 H9        -1.4120    -4.6050     2.3810 H          1 ****  0.0594
   45 H10       -0.1210    -3.3890     2.5120 H          1 ****  0.0594
   46 H11        0.2780    -6.2360     2.9670 H          1 ****  0.0529
   47 H12        1.5660    -4.9840     2.9500 H          1 ****  0.0529
   48 H13        1.6810    -6.4030     1.8890 H          1 ****  0.0529
   49 H14       -1.5280    -5.0320    -0.5300 H          1 ****  0.0361
   50 H15       -2.1290    -3.5620    -1.2640 H          1 ****  0.0361
   51 H16       -4.4540    -5.0940    -1.7240 H          1 ****  0.0793
   52 H17       -7.3500    -5.7630     0.7170 H          1 ****  0.0506
   53 H18       -6.6860    -6.3870    -0.7970 H          1 ****  0.0506
   54 H19       -7.7810    -3.0960     0.7610 H          1 ****  0.0626
   55 H20       -9.0380    -1.3660    -0.4720 H          1 ****  0.0622
   56 H21       -9.5730    -1.6820    -2.8730 H          1 ****  0.0622
   57 H22       -8.8440    -3.7410    -4.0450 H          1 ****  0.0622
   58 H23       -7.5880    -5.4830    -2.8370 H          1 ****  0.0626
   59 H24        1.3320     3.1200     1.1990 H          1 ****  0.1499
   60 H25        1.8250     5.3320     1.3020 H          1 ****  0.0503
   61 H26       -0.0440     6.9330     1.0060 H          1 ****  0.0286
   62 H27       -1.0000     5.7120     0.0610 H          1 ****  0.0286
   63 H28        1.8090     6.7890    -0.6970 H          1 ****  0.0286
   64 H29        0.8470     5.5670    -1.6340 H          1 ****  0.0318
@<TRIPOS>BOND
    1     1     2 1
    2     1    36 1
    3     1    37 1
    4     1    38 1
    5     2     3 am
    6     2    39 1
    7     3     4 2
    8     3     5 2
    9     3     6 1
   10     6     7 ar
   11     7     8 ar
   12     7    40 1
   13     8     9 ar
   14     8    30 1
   15     9    10 ar
   16     9    41 1
   17    10    11 ar
   18    10    42 1
   19    11     6 ar
   20    11    12 1
   21    12    13 1
   22    13    14 1
   23    13    17 1
   24    13    43 1
   25    14    15 1
   26    14    44 1
   27    14    45 1
   28    15    16 1
   29    16    46 1
   30    16    47 1
   31    16    48 1
   32    17    18 1
   33    17    49 1
   34    17    50 1
   35    18    19 ar
   36    19    20 ar
   37    19    51 1
   38    20    21 1
   39    20    28 ar
   40    21    22 1
   41    21    52 1
   42    21    53 1
   43    22    23 ar
   44    23    24 ar
   45    23    54 1
   46    24    25 ar
   47    24    55 1
   48    25    26 ar
   49    25    56 1
   50    26    27 ar
   51    26    57 1
   52    27    22 ar
   53    27    58 1
   54    28    29 ar
   55    29    18 ar
   56    30    31 2
   57    30    32 am
   58    32    33 1
   59    32    59 1
   60    33    34 1
   61    33    60 1
   62    34    35 1
   63    34    61 1
   64    34    62 1
   65    35    33 1
   66    35    63 1
   67    35    64 1
@<TRIPOS>SUBSTRUCTURE
1   ****   1

