@<TRIPOS>MOLECULE
46
71  75  1  0  0
SMALL
USER_CHARGES
@<TRIPOS>ATOM
    1 C1         9.3720     1.4020     0.8380 C.3        1 ****  -0.0398
    2 C2         8.1320     0.6780     0.4030 C.ar       1 ****  -0.0512
    3 C3         7.3340     1.1960    -0.6220 C.ar       1 ****  -0.0590
    4 C4         6.1620     0.5410    -1.0060 C.ar       1 ****  -0.0575
    5 C5         5.7620    -0.6410    -0.3670 C.ar       1 ****  -0.0342
    6 C6         4.4900    -1.3390    -0.7870 C.3        1 ****  0.0208
    7 N1         3.3200    -0.5590    -0.3900 N.3        1 ****  -0.3086
    8 C7         2.0800    -1.2420    -0.7800 C.3        1 ****  0.0235
    9 C8         0.8270    -0.4520    -0.4390 C.ar       1 ****  -0.0012
   10 C9         0.8670     0.9500    -0.3570 C.ar       1 ****  -0.0550
   11 C10       -0.2860     1.6810    -0.0950 C.ar       1 ****  -0.0592
   12 C11       -1.5060     1.0270     0.0580 C.ar       1 ****  -0.0291
   13 C12       -1.5930    -0.3690    -0.0460 C.ar       1 ****  0.1054
   14 O1        -2.7850    -1.0420     0.0280 O.3        1 ****  -0.3430
   15 C13       -3.9740    -0.3110     0.3190 C.3        1 ****  0.0584
   16 C14       -5.1610    -1.2630     0.4070 C.3        1 ****  0.0036
   17 C15       -5.4140    -2.2110    -0.7880 C.3        1 ****  -0.0183
   18 N2        -5.0080    -3.3810     0.0430 N.am       1 ****  -0.3590
   19 C16       -4.9930    -2.5320     1.2710 C.3        1 ****  -0.0183
   20 S1        -5.7230    -4.9130     0.0030 S.O2       1 ****  1.3685
   21 O2        -5.3750    -5.5770     1.2420 O.2        1 ****  -0.5709
   22 O3        -7.1070    -4.7450    -0.3870 O.2        1 ****  -0.5709
   23 C17       -4.9160    -5.8730    -1.3040 C.3        1 ****  -0.0144
   24 C18       -5.3070    -5.4660    -2.7040 C.3        1 ****  -0.0585
   25 C19       -3.9270    -5.1700    -2.1910 C.3        1 ****  -0.0585
   26 C20       -0.4150    -1.1160    -0.2790 C.ar       1 ****  0.1097
   27 O4        -0.3330    -2.4840    -0.4190 O.3        1 ****  -0.3404
   28 C21       -1.3470    -3.2920     0.1820 C.3        1 ****  0.0796
   29 C22       -0.8840    -4.7480     0.2900 C.3        1 ****  0.0814
   30 C23        0.4250    -4.9480     1.0380 C.3        1 ****  -0.0223
   31 C24        0.9120    -6.2510     0.4560 C.3        1 ****  -0.0271
   32 C25        0.5070    -6.1130    -0.9950 C.3        1 ****  0.0471
   33 O5        -0.6980    -5.3340    -1.0170 O.3        1 ****  -0.3758
   34 C26        6.5520    -1.1470     0.6730 C.ar       1 ****  -0.0575
   35 C27        7.7250    -0.4910     1.0560 C.ar       1 ****  -0.0590
   36 H1         9.1240     2.1410     1.6060 H          1 ****  0.0279
   37 H2         9.8410     1.9140    -0.0090 H          1 ****  0.0279
   38 H3        10.1110     0.7030     1.2440 H          1 ****  0.0279
   39 H4         7.6160     2.1170    -1.1280 H          1 ****  0.0625
   40 H5         5.5490     0.9600    -1.8010 H          1 ****  0.0626
   41 H6         4.5140    -1.4750    -1.8750 H          1 ****  0.0478
   42 H7         4.4540    -2.3410    -0.3390 H          1 ****  0.0478
   43 H8         3.3280    -0.4490     0.6230 H          1 ****  0.1228
   44 H9         2.0550    -2.2110    -0.2700 H          1 ****  0.0479
   45 H10        2.0720    -1.4170    -1.8620 H          1 ****  0.0479
   46 H11        1.8040     1.4820    -0.5060 H          1 ****  0.0627
   47 H12       -0.2350     2.7640    -0.0290 H          1 ****  0.0623
   48 H13       -2.3780     1.6460     0.2380 H          1 ****  0.0651
   49 H14       -3.8670     0.2070     1.2800 H          1 ****  0.0576
   50 H15       -4.1660     0.4220    -0.4730 H          1 ****  0.0576
   51 H16       -6.0630    -0.6970     0.6770 H          1 ****  0.0351
   52 H17       -4.7740    -2.0660    -1.6610 H          1 ****  0.0409
   53 H18       -6.4600    -2.2530    -1.1080 H          1 ****  0.0409
   54 H19       -5.8410    -2.7330     1.9330 H          1 ****  0.0409
   55 H20       -4.0610    -2.6250     1.8350 H          1 ****  0.0409
   56 H21       -4.7660    -6.9230    -1.0990 H          1 ****  0.0194
   57 H22       -5.9860    -4.6330    -2.8450 H          1 ****  0.0257
   58 H23       -5.4190    -6.2510    -3.4420 H          1 ****  0.0257
   59 H24       -3.0990    -5.7570    -2.5750 H          1 ****  0.0257
   60 H25       -3.6600    -4.1370    -2.0190 H          1 ****  0.0257
   61 H26       -2.2280    -3.2690    -0.4630 H          1 ****  0.0599
   62 H27       -1.5820    -2.9270     1.1890 H          1 ****  0.0599
   63 H28       -1.6780    -5.3310     0.7740 H          1 ****  0.0627
   64 H29        0.2890    -4.9820     2.1230 H          1 ****  0.0294
   65 H30        1.1480    -4.1580     0.8120 H          1 ****  0.0294
   66 H31        1.9840    -6.4180     0.5860 H          1 ****  0.0291
   67 H32        0.3740    -7.0880     0.9170 H          1 ****  0.0291
   68 H33        1.2660    -5.5690    -1.5690 H          1 ****  0.0566
   69 H34        0.3300    -7.0780    -1.4770 H          1 ****  0.0566
   70 H35        6.2590    -2.0540     1.1960 H          1 ****  0.0626
   71 H36        8.3190    -0.8990     1.8700 H          1 ****  0.0662
@<TRIPOS>BOND
    1     1     2 1
    2     1    36 1
    3     1    37 1
    4     1    38 1
    5     2     3 ar
    6     3     4 ar
    7     3    39 1
    8     4     5 ar
    9     4    40 1
   10     5     6 1
   11     5    34 ar
   12     6     7 1
   13     6    41 1
   14     6    42 1
   15     7     8 1
   16     7    43 1
   17     8     9 1
   18     8    44 1
   19     8    45 1
   20     9    10 ar
   21    10    11 ar
   22    10    46 1
   23    11    12 ar
   24    11    47 1
   25    12    13 ar
   26    12    48 1
   27    13    14 1
   28    13    26 ar
   29    14    15 1
   30    15    16 1
   31    15    49 1
   32    15    50 1
   33    16    17 1
   34    16    51 1
   35    17    18 1
   36    17    52 1
   37    17    53 1
   38    18    19 1
   39    18    20 am
   40    19    16 1
   41    19    54 1
   42    19    55 1
   43    20    21 2
   44    20    22 2
   45    20    23 1
   46    23    24 1
   47    23    56 1
   48    24    25 1
   49    24    57 1
   50    24    58 1
   51    25    23 1
   52    25    59 1
   53    25    60 1
   54    26     9 ar
   55    26    27 1
   56    27    28 1
   57    28    29 1
   58    28    61 1
   59    28    62 1
   60    29    30 1
   61    29    63 1
   62    30    31 1
   63    30    64 1
   64    30    65 1
   65    31    32 1
   66    31    66 1
   67    31    67 1
   68    32    33 1
   69    32    68 1
   70    32    69 1
   71    33    29 1
   72    34    35 ar
   73    34    70 1
   74    35     2 ar
   75    35    71 1
@<TRIPOS>SUBSTRUCTURE
1   ****   1

