@<TRIPOS>MOLECULE
141
76  80  1  0  0
SMALL
USER_CHARGES
@<TRIPOS>ATOM
    1 C1        -3.0060    -6.2590     3.0070 C.3        1 ****  -0.0494
    2 C2        -1.8070    -6.9810     2.4120 C.3        1 ****  0.0112
    3 N1        -1.4380    -6.4740     1.0890 N.am       1 ****  -0.3014
    4 C3        -1.8950    -7.2350    -0.0800 C.3        1 ****  0.0112
    5 C4        -3.3090    -6.8730    -0.5020 C.3        1 ****  -0.0494
    6 C5        -0.7080    -5.2820     1.0240 C.2        1 ****  0.2292
    7 O1        -0.3200    -4.7160     2.0490 O.2        1 ****  -0.2760
    8 C6        -0.4350    -4.7100    -0.3640 C.3        1 ****  0.0864
    9 N2         0.3520    -3.4940    -0.3650 N.ar       1 ****  -0.2213
   10 C7         1.7330    -3.3060    -0.5660 C.ar       1 ****  0.0955
   11 N3         2.1110    -1.9630    -0.5810 N.ar       1 ****  -0.2391
   12 C8         0.9140    -1.3300    -0.3640 C.ar       1 ****  0.0830
   13 C9         0.6860     0.0360    -0.2710 C.ar       1 ****  -0.0348
   14 C10       -0.6160     0.4890    -0.0390 C.ar       1 ****  -0.0600
   15 C11       -1.6750    -0.4230     0.1010 C.ar       1 ****  -0.0606
   16 C12       -1.4470    -1.7970     0.0080 C.ar       1 ****  -0.0414
   17 C13       -0.1490    -2.2160    -0.2290 C.ar       1 ****  0.0491
   18 C14        2.7950    -4.3670    -0.6680 C.3        1 ****  0.0370
   19 C15        2.9570    -5.2310     0.5800 C.3        1 ****  0.0292
   20 N4         2.5800    -6.5680     0.1830 N.am       1 ****  -0.2684
   21 C16        2.2290    -6.6380    -1.1650 C.2        1 ****  0.2194
   22 O2         1.6520    -7.5340    -1.7650 O.2        1 ****  -0.2771
   23 C17        2.6350    -5.3450    -1.8240 C.3        1 ****  0.0358
   24 C18        2.4330    -7.6340     1.1120 C.ar       1 ****  0.0658
   25 C19        1.9800    -7.3730     2.4140 C.ar       1 ****  -0.0379
   26 C20        1.8050    -8.4040     3.3410 C.ar       1 ****  -0.0602
   27 C21        2.1000    -9.7140     2.9860 C.ar       1 ****  -0.0596
   28 C22        2.5890    -9.9930     1.7100 C.ar       1 ****  -0.0299
   29 C23        2.7600    -8.9650     0.7710 C.ar       1 ****  0.0965
   30 O3         3.3760    -9.1900    -0.4370 O.3        1 ****  -0.3429
   31 C24        3.0570   -10.4370    -1.0650 C.3        1 ****  0.0658
   32 C25        3.4240   -10.3430    -2.5520 C.3        1 ****  0.0196
   33 N5         3.2730   -11.6400    -3.2220 N.3        1 ****  -0.3089
   34 C26        3.5440   -11.5110    -4.6610 C.3        1 ****  0.0380
   35 C27        3.4830   -12.8550    -5.3610 C.ar       1 ****  0.0541
   36 C28        2.2530   -13.4730    -5.5800 C.ar       1 ****  -0.0393
   37 C29        2.2260   -14.7180    -6.2030 C.ar       1 ****  -0.0589
   38 C30        3.4220   -15.3130    -6.5840 C.ar       1 ****  -0.0438
   39 C31        4.6020   -14.6370    -6.3200 C.ar       1 ****  0.0271
   40 N6         4.6610   -13.4300    -5.7170 N.ar       1 ****  -0.2600
   41 H1        -3.9010    -6.3930     2.3940 H          1 ****  0.0246
   42 H2        -2.8220    -5.1830     3.0950 H          1 ****  0.0246
   43 H3        -3.2220    -6.6480     4.0070 H          1 ****  0.0246
   44 H4        -0.9540    -6.8530     3.0870 H          1 ****  0.0466
   45 H5        -2.0030    -8.0570     2.3490 H          1 ****  0.0466
   46 H6        -1.2200    -7.0660    -0.9210 H          1 ****  0.0466
   47 H7        -1.8290    -8.3040     0.1510 H          1 ****  0.0466
   48 H8        -3.4160    -5.7970    -0.6680 H          1 ****  0.0246
   49 H9        -4.0370    -7.1700     0.2590 H          1 ****  0.0246
   50 H10       -3.5700    -7.3920    -1.4290 H          1 ****  0.0246
   51 H11       -1.3880    -4.4830    -0.8510 H          1 ****  0.0539
   52 H12        0.0780    -5.4340    -0.9860 H          1 ****  0.0539
   53 H13        1.5060     0.7380    -0.3740 H          1 ****  0.0646
   54 H14       -0.8110     1.5550     0.0410 H          1 ****  0.0623
   55 H15       -2.6800    -0.0540     0.2890 H          1 ****  0.0623
   56 H16       -2.2660    -2.4940     0.1310 H          1 ****  0.0640
   57 H17        3.7330    -3.8160    -0.8240 H          1 ****  0.0401
   58 H18        2.3550    -4.8610     1.4120 H          1 ****  0.0481
   59 H19        4.0070    -5.2650     0.8940 H          1 ****  0.0481
   60 H20        3.5900    -5.5180    -2.3320 H          1 ****  0.0372
   61 H21        1.8870    -5.0310    -2.5570 H          1 ****  0.0372
   62 H22        1.7120    -6.3680     2.7300 H          1 ****  0.0643
   63 H23        1.4370    -8.1770     4.3380 H          1 ****  0.0623
   64 H24        1.9720   -10.5170     3.7080 H          1 ****  0.0623
   65 H25        2.8650   -11.0170     1.4820 H          1 ****  0.0651
   66 H26        1.9880   -10.6660    -0.9660 H          1 ****  0.0585
   67 H27        3.6490   -11.2330    -0.5970 H          1 ****  0.0585
   68 H28        2.7830    -9.5910    -3.0260 H          1 ****  0.0452
   69 H29        4.4550    -9.9810    -2.6470 H          1 ****  0.0452
   70 H30        3.9590   -12.2950    -2.8440 H          1 ****  0.1226
   71 H31        4.5400   -11.0780    -4.8220 H          1 ****  0.0495
   72 H32        2.8150   -10.8380    -5.1300 H          1 ****  0.0495
   73 H33        1.3320   -12.9960    -5.2600 H          1 ****  0.0642
   74 H34        1.2800   -15.2200    -6.3830 H          1 ****  0.0623
   75 H35        3.4360   -16.2820    -7.0690 H          1 ****  0.0638
   76 H36        5.5630   -15.0630    -6.5940 H          1 ****  0.0874
@<TRIPOS>BOND
    1     1     2 1
    2     1    41 1
    3     1    42 1
    4     1    43 1
    5     2     3 1
    6     2    44 1
    7     2    45 1
    8     3     4 1
    9     3     6 am
   10     4     5 1
   11     4    46 1
   12     4    47 1
   13     5    48 1
   14     5    49 1
   15     5    50 1
   16     6     7 2
   17     6     8 1
   18     8     9 1
   19     8    51 1
   20     8    52 1
   21     9    10 ar
   22    10    11 ar
   23    10    18 1
   24    11    12 ar
   25    12    13 ar
   26    13    14 ar
   27    13    53 1
   28    14    15 ar
   29    14    54 1
   30    15    16 ar
   31    15    55 1
   32    16    17 ar
   33    16    56 1
   34    17     9 ar
   35    17    12 ar
   36    18    19 1
   37    18    57 1
   38    19    20 1
   39    19    58 1
   40    19    59 1
   41    20    21 am
   42    20    24 1
   43    21    22 2
   44    21    23 1
   45    23    18 1
   46    23    60 1
   47    23    61 1
   48    24    25 ar
   49    25    26 ar
   50    25    62 1
   51    26    27 ar
   52    26    63 1
   53    27    28 ar
   54    27    64 1
   55    28    29 ar
   56    28    65 1
   57    29    24 ar
   58    29    30 1
   59    30    31 1
   60    31    32 1
   61    31    66 1
   62    31    67 1
   63    32    33 1
   64    32    68 1
   65    32    69 1
   66    33    34 1
   67    33    70 1
   68    34    35 1
   69    34    71 1
   70    34    72 1
   71    35    36 ar
   72    36    37 ar
   73    36    73 1
   74    37    38 ar
   75    37    74 1
   76    38    39 ar
   77    38    75 1
   78    39    40 ar
   79    39    76 1
   80    40    35 ar
@<TRIPOS>SUBSTRUCTURE
1   ****   1

