@<TRIPOS>MOLECULE
121
77  80  1  0  0
SMALL
USER_CHARGES
@<TRIPOS>ATOM
    1 C1         6.6420    -3.3490    -0.7090 C.3        1 ****  0.0423
    2 O1         5.3480    -3.7550    -0.2880 O.3        1 ****  -0.3467
    3 C2         4.3670    -2.7980    -0.2360 C.ar       1 ****  0.1048
    4 C3         4.5530    -1.4510    -0.5520 C.ar       1 ****  -0.0285
    5 C4         3.4870    -0.5480    -0.4710 C.ar       1 ****  -0.0496
    6 C5         2.2160    -0.9670    -0.0570 C.ar       1 ****  0.0082
    7 C6         2.0340    -2.3250     0.2530 C.ar       1 ****  -0.0192
    8 C7         3.0900    -3.2400     0.1550 C.ar       1 ****  0.1058
    9 O2         2.9700    -4.5760     0.4550 O.3        1 ****  -0.3433
   10 C8         1.6620    -5.1450     0.3430 C.3        1 ****  0.0551
   11 C9         1.8190    -6.6650     0.3710 C.3        1 ****  -0.0108
   12 C10        0.5060    -7.4940     0.2850 C.3        1 ****  0.0215
   13 C11       -0.4030    -7.1810     1.4840 C.3        1 ****  -0.0467
   14 C12       -0.2200    -7.1890    -1.0360 C.3        1 ****  -0.0467
   15 N1         0.9140    -8.9080     0.3250 N.3        1 ****  -0.2582
   16 C13        0.1360   -10.0140     0.3090 C.2        1 ****  0.1476
   17 N2        -1.1870   -10.0200    -0.0390 N.2        1 ****  -0.2588
   18 C14       -1.6610   -11.4240    -0.0030 C.3        1 ****  0.0629
   19 C15       -2.5660   -11.6100     1.2080 C.3        1 ****  -0.0413
   20 C16       -0.3780   -12.2550     0.0770 C.3        1 ****  0.0246
   21 N3         0.5820   -11.2770     0.5490 N.3        1 ****  -0.2615
   22 C17        1.0770    -0.0200     0.0340 C.2        1 ****  0.0933
   23 C18        1.1850     1.2840     0.3280 C.2        1 ****  0.0177
   24 C19        0.0010     2.1580     0.3850 C.2        1 ****  0.1935
   25 O3         0.1510     3.3570     0.5740 O.2        1 ****  -0.2890
   26 C20       -1.3050     1.4950     0.1840 C.ar       1 ****  0.0886
   27 C21       -2.5250     2.1840     0.2710 C.ar       1 ****  0.1215
   28 O4        -2.5710     3.5100     0.6210 O.3        1 ****  -0.3457
   29 C22       -2.6530     4.3320    -0.5440 C.3        1 ****  0.0423
   30 C23       -3.7330     1.4920     0.0940 C.ar       1 ****  0.1388
   31 O5        -4.9290     2.1660     0.1710 O.3        1 ****  -0.3440
   32 C24       -5.4160     2.1380     1.5130 C.3        1 ****  0.0424
   33 C25       -3.7260     0.1330    -0.2320 C.ar       1 ****  0.1407
   34 O6        -4.9070    -0.5410    -0.4130 O.3        1 ****  -0.3440
   35 C26       -5.3300    -0.4250    -1.7720 C.3        1 ****  0.0424
   36 C27       -2.5110    -0.5570    -0.2970 C.ar       1 ****  0.1394
   37 O7        -2.4800    -1.8910    -0.6220 O.3        1 ****  -0.3440
   38 C28       -2.7660    -2.6890     0.5270 C.3        1 ****  0.0424
   39 C29       -1.3020     0.1270    -0.1070 C.ar       1 ****  0.1289
   40 O8        -0.1510    -0.6190    -0.2120 O.3        1 ****  -0.3060
   41 H1         7.0690    -2.6120    -0.0200 H          1 ****  0.0535
   42 H2         6.6220    -2.9680    -1.7350 H          1 ****  0.0535
   43 H3         7.2910    -4.2300    -0.6950 H          1 ****  0.0535
   44 H4         5.5170    -1.0680    -0.8720 H          1 ****  0.0651
   45 H5         3.6710     0.4880    -0.7480 H          1 ****  0.0630
   46 H6         1.0570    -2.6560     0.5910 H          1 ****  0.0658
   47 H7         1.1990    -4.8300    -0.5980 H          1 ****  0.0572
   48 H8         1.0570    -4.8130     1.1930 H          1 ****  0.0572
   49 H9         2.4930    -6.9590    -0.4470 H          1 ****  0.0309
   50 H10        2.3660    -6.9350     1.2860 H          1 ****  0.0309
   51 H11       -0.7350    -6.1380     1.4820 H          1 ****  0.0249
   52 H12        0.1150    -7.3710     2.4310 H          1 ****  0.0249
   53 H13       -1.3090    -7.7980     1.4810 H          1 ****  0.0249
   54 H14        0.4170    -7.4210    -1.8970 H          1 ****  0.0249
   55 H15       -0.5140    -6.1360    -1.1030 H          1 ****  0.0249
   56 H16       -1.1410    -7.7680    -1.1470 H          1 ****  0.0249
   57 H17        1.7470    -9.0790     0.8810 H          1 ****  0.1312
   58 H18       -2.2180   -11.6580    -0.9160 H          1 ****  0.0562
   59 H19       -3.4420   -10.9560     1.1360 H          1 ****  0.0252
   60 H20       -2.0480   -11.3620     2.1410 H          1 ****  0.0252
   61 H21       -2.9160   -12.6450     1.2760 H          1 ****  0.0252
   62 H22       -0.4520   -13.1150     0.7480 H          1 ****  0.0455
   63 H23       -0.0850   -12.6060    -0.9190 H          1 ****  0.0455
   64 H24        1.5400   -11.4080     0.2440 H          1 ****  0.1307
   65 H25        2.1310     1.7690     0.5370 H          1 ****  0.0692
   66 H26       -3.6160     4.2060    -1.0500 H          1 ****  0.0535
   67 H27       -1.8330     4.1280    -1.2420 H          1 ****  0.0535
   68 H28       -2.5740     5.3750    -0.2240 H          1 ****  0.0535
   69 H29       -4.7250     2.6390     2.2000 H          1 ****  0.0535
   70 H30       -5.6050     1.1120     1.8460 H          1 ****  0.0535
   71 H31       -6.3650     2.6810     1.5350 H          1 ****  0.0535
   72 H32       -4.5820    -0.8360    -2.4580 H          1 ****  0.0535
   73 H33       -5.5550     0.6150    -2.0320 H          1 ****  0.0535
   74 H34       -6.2500    -1.0070    -1.8860 H          1 ****  0.0535
   75 H35       -3.8060    -2.5720     0.8470 H          1 ****  0.0535
   76 H36       -2.0850    -2.4550     1.3540 H          1 ****  0.0535
   77 H37       -2.6140    -3.7370     0.2520 H          1 ****  0.0569
@<TRIPOS>BOND
    1     1     2 1
    2     1    41 1
    3     1    42 1
    4     1    43 1
    5     2     3 1
    6     3     4 ar
    7     4     5 ar
    8     4    44 1
    9     5     6 ar
   10     5    45 1
   11     6     7 ar
   12     6    22 1
   13     7     8 ar
   14     7    46 1
   15     8     3 ar
   16     8     9 1
   17     9    10 1
   18    10    11 1
   19    10    47 1
   20    10    48 1
   21    11    12 1
   22    11    49 1
   23    11    50 1
   24    12    13 1
   25    12    14 1
   26    12    15 1
   27    13    51 1
   28    13    52 1
   29    13    53 1
   30    14    54 1
   31    14    55 1
   32    14    56 1
   33    15    16 1
   34    15    57 1
   35    16    17 2
   36    17    18 1
   37    18    19 1
   38    18    20 1
   39    18    58 1
   40    19    59 1
   41    19    60 1
   42    19    61 1
   43    20    21 1
   44    20    62 1
   45    20    63 1
   46    21    16 1
   47    21    64 1
   48    22    23 2
   49    23    24 1
   50    23    65 1
   51    24    25 2
   52    24    26 1
   53    26    27 ar
   54    27    28 1
   55    27    30 ar
   56    28    29 1
   57    29    66 1
   58    29    67 1
   59    29    68 1
   60    30    31 1
   61    30    33 ar
   62    31    32 1
   63    32    69 1
   64    32    70 1
   65    32    71 1
   66    33    34 1
   67    33    36 ar
   68    34    35 1
   69    35    72 1
   70    35    73 1
   71    35    74 1
   72    36    37 1
   73    36    39 ar
   74    37    38 1
   75    38    75 1
   76    38    76 1
   77    38    77 1
   78    39    26 ar
   79    39    40 1
   80    40    22 1
@<TRIPOS>SUBSTRUCTURE
1   ****   1

