@<TRIPOS>MOLECULE
81
88  92  1  0  0
SMALL
USER_CHARGES
@<TRIPOS>ATOM
    1 C1         6.4360    -2.0520     1.4580 C.3        1 ****  -0.0499
    2 C2         6.0470    -0.5710     1.3830 C.3        1 ****  0.0040
    3 C3         6.9820     0.2890     2.2340 C.3        1 ****  -0.0499
    4 N1         5.8550    -0.0070     0.0240 N.3        1 ****  -0.2968
    5 C4         4.4860    -0.3010    -0.4780 C.3        1 ****  0.0225
    6 C5         3.3610     0.5070     0.2000 C.3        1 ****  0.0660
    7 O1         2.1380     0.2050    -0.4830 O.3        1 ****  -0.3448
    8 C6         0.9970     0.7850    -0.0040 C.ar       1 ****  0.0750
    9 C7         0.9170     1.7130     1.0300 C.ar       1 ****  -0.0311
   10 C8        -0.3280     2.2200     1.4300 C.ar       1 ****  -0.0486
   11 C9        -1.5200     1.8150     0.8070 C.ar       1 ****  0.0217
   12 C10       -1.4180     0.8880    -0.2400 C.ar       1 ****  -0.0486
   13 C11       -0.1760     0.3810    -0.6400 C.ar       1 ****  -0.0311
   14 C12       -2.8280     2.3300     1.2340 C.ar       1 ****  0.1889
   15 N2        -2.9940     3.1670     2.3180 N.ar       1 ****  -0.1065
   16 O2        -4.3820     3.2340     2.5060 O.2        1 ****  -0.1962
   17 C13       -4.9060     2.4810     1.4860 C.ar       1 ****  0.1755
   18 C14       -6.3650     2.1950     1.4670 C.3        1 ****  0.0177
   19 C15       -7.2480     3.3010     0.8660 C.3        1 ****  -0.0308
   20 C16       -6.8670     3.6550    -0.5850 C.3        1 ****  -0.0340
   21 C17       -7.7870     4.7430    -1.1480 C.3        1 ****  0.0146
   22 N3        -7.8000     5.9090    -0.2620 N.am       1 ****  -0.2979
   23 C18       -8.2120     5.6150     1.1080 C.3        1 ****  0.0146
   24 C19       -7.2870     4.5730     1.7340 C.3        1 ****  -0.0340
   25 C20       -7.0220     7.0500    -0.4710 C.2        1 ****  0.2454
   26 O3        -6.6010     7.7580     0.4410 O.2        1 ****  -0.2717
   27 C21       -6.6890     7.4610    -1.8560 C.ar       1 ****  0.0380
   28 C22       -7.6710     7.4880    -2.8550 C.ar       1 ****  -0.0497
   29 C23       -7.3460     7.9280    -4.1380 C.ar       1 ****  -0.0607
   30 C24       -6.0460     8.3550    -4.4170 C.ar       1 ****  -0.0489
   31 C25       -5.0680     8.3480    -3.4140 C.ar       1 ****  0.0475
   32 C26       -5.3930     7.9190    -2.1250 C.ar       1 ****  -0.0363
   33 C27       -3.7290     8.8480    -3.7510 C.2        1 ****  0.2900
   34 O4        -3.5480     9.7510    -4.5510 O.2        1 ****  -0.2609
   35 O5        -2.7240     8.1810    -3.1450 O.3        1 ****  -0.3279
   36 N4        -4.0000     1.9670     0.6200 N.ar       1 ****  -0.2035
   37 C28        6.8520    -0.3930    -1.0040 C.3        1 ****  0.0172
   38 C29        8.2140     0.3560    -1.1090 C.3        1 ****  0.0380
   39 C30        9.3780    -0.4070    -0.4630 C.3        1 ****  -0.0318
   40 C31       10.4060     0.6840    -0.2000 C.3        1 ****  -0.0355
   41 C32        9.5510     1.8790     0.1940 C.3        1 ****  0.0144
   42 N5         8.3160     1.7120    -0.5550 N.am       1 ****  -0.2978
   43 C33        7.5580     2.8240    -0.8480 C.2        1 ****  0.2113
   44 O6         7.7660     3.9140    -0.3100 O.2        1 ****  -0.2778
   45 C34        6.4640     2.6940    -1.8740 C.3        1 ****  0.0129
   46 H1         6.4060    -2.3980     2.4970 H          1 ****  0.0246
   47 H2         7.4450    -2.2410     1.0860 H          1 ****  0.0246
   48 H3         5.7380    -2.6760     0.8900 H          1 ****  0.0246
   49 H4         5.0920    -0.5000     1.9160 H          1 ****  0.0461
   50 H5         8.0310     0.1400     1.9850 H          1 ****  0.0246
   51 H6         6.8700     0.0320     3.2930 H          1 ****  0.0246
   52 H7         6.7430     1.3530     2.1340 H          1 ****  0.0246
   53 H8         4.4140    -0.0520    -1.5450 H          1 ****  0.0454
   54 H9         4.2640    -1.3740    -0.4230 H          1 ****  0.0454
   55 H10        3.5800     1.5780     0.1110 H          1 ****  0.0585
   56 H11        3.2630     0.2300     1.2540 H          1 ****  0.0585
   57 H12        1.8010     2.0700     1.5500 H          1 ****  0.0650
   58 H13       -0.3520     2.9410     2.2450 H          1 ****  0.0631
   59 H14       -2.3090     0.5400    -0.7590 H          1 ****  0.0631
   60 H15       -0.1280    -0.3410    -1.4510 H          1 ****  0.0650
   61 H16       -6.6910     1.9810     2.4920 H          1 ****  0.0357
   62 H17       -6.5190     1.2710     0.8960 H          1 ****  0.0357
   63 H18       -8.2710     2.8980     0.8440 H          1 ****  0.0308
   64 H19       -6.9270     2.7630    -1.2190 H          1 ****  0.0285
   65 H20       -5.8320     4.0160    -0.6260 H          1 ****  0.0285
   66 H21       -7.4460     4.9970    -2.1530 H          1 ****  0.0469
   67 H22       -8.8160     4.3740    -1.2260 H          1 ****  0.0469
   68 H23       -8.2220     6.5260     1.7160 H          1 ****  0.0469
   69 H24       -9.2420     5.2390     1.0710 H          1 ****  0.0469
   70 H25       -6.2810     4.9990     1.8300 H          1 ****  0.0285
   71 H26       -7.6380     4.3300     2.7440 H          1 ****  0.0285
   72 H27       -8.6920     7.1890    -2.6310 H          1 ****  0.0630
   73 H28       -8.1060     7.9570    -4.9160 H          1 ****  0.0623
   74 H29       -5.8010     8.7140    -5.4160 H          1 ****  0.0631
   75 H30       -4.6710     7.9740    -1.3130 H          1 ****  0.0639
   76 H31       -2.9850     7.3990    -2.6250 H          1 ****  0.2217
   77 H32        6.3960    -0.1970    -1.9850 H          1 ****  0.0450
   78 H33        7.0140    -1.4780    -1.0240 H          1 ****  0.0450
   79 H34        8.4500     0.4630    -2.1780 H          1 ****  0.0519
   80 H35        9.7660    -1.1930    -1.1170 H          1 ****  0.0286
   81 H36        9.0940    -0.8760     0.4800 H          1 ****  0.0286
   82 H37       11.1320     0.4120     0.5710 H          1 ****  0.0283
   83 H38       10.9540     0.9030    -1.1250 H          1 ****  0.0283
   84 H39       10.0420     2.8270    -0.0470 H          1 ****  0.0469
   85 H40        9.3110     1.8730     1.2610 H          1 ****  0.0469
   86 H41        5.5370     2.3770    -1.3940 H          1 ****  0.0328
   87 H42        6.7400     2.0070    -2.6750 H          1 ****  0.0328
   88 H43        6.2980     3.6720    -2.3360 H          1 ****  0.0369
@<TRIPOS>BOND
    1     1     2 1
    2     1    46 1
    3     1    47 1
    4     1    48 1
    5     2     3 1
    6     2     4 1
    7     2    49 1
    8     3    50 1
    9     3    51 1
   10     3    52 1
   11     4     5 1
   12     4    37 1
   13     5     6 1
   14     5    53 1
   15     5    54 1
   16     6     7 1
   17     6    55 1
   18     6    56 1
   19     7     8 1
   20     8     9 ar
   21     9    10 ar
   22     9    57 1
   23    10    11 ar
   24    10    58 1
   25    11    12 ar
   26    11    14 1
   27    12    13 ar
   28    12    59 1
   29    13     8 ar
   30    13    60 1
   31    14    15 ar
   32    15    16 ar
   33    16    17 ar
   34    17    18 1
   35    17    36 ar
   36    18    19 1
   37    18    61 1
   38    18    62 1
   39    19    20 1
   40    19    63 1
   41    20    21 1
   42    20    64 1
   43    20    65 1
   44    21    22 1
   45    21    66 1
   46    21    67 1
   47    22    23 1
   48    22    25 am
   49    23    24 1
   50    23    68 1
   51    23    69 1
   52    24    19 1
   53    24    70 1
   54    24    71 1
   55    25    26 2
   56    25    27 1
   57    27    28 ar
   58    28    29 ar
   59    28    72 1
   60    29    30 ar
   61    29    73 1
   62    30    31 ar
   63    30    74 1
   64    31    32 ar
   65    31    33 1
   66    32    27 ar
   67    32    75 1
   68    33    34 2
   69    33    35 1
   70    35    76 1
   71    36    14 ar
   72    37    38 1
   73    37    77 1
   74    37    78 1
   75    38    39 1
   76    38    79 1
   77    39    40 1
   78    39    80 1
   79    39    81 1
   80    40    41 1
   81    40    82 1
   82    40    83 1
   83    41    42 1
   84    41    84 1
   85    41    85 1
   86    42    38 1
   87    42    43 am
   88    43    44 2
   89    43    45 1
   90    45    86 1
   91    45    87 1
   92    45    88 1
@<TRIPOS>SUBSTRUCTURE
1   ****   1

