@<TRIPOS>MOLECULE
21
83  88  1  0  0
SMALL
USER_CHARGES
@<TRIPOS>ATOM
    1 C1         7.0320    -7.2060    -0.7250 C.3        1 ****  0.0422
    2 O1         6.2120    -6.4010    -1.5640 O.3        1 ****  -0.3494
    3 C2         5.3620    -5.5300    -0.9390 C.ar       1 ****  0.0745
    4 C3         5.2660    -5.3180     0.4350 C.ar       1 ****  -0.0312
    5 C4         4.3400    -4.3960     0.9410 C.ar       1 ****  -0.0502
    6 C5         3.4880    -3.6800     0.0890 C.ar       1 ****  0.0020
    7 C6         3.6050    -3.8920    -1.2910 C.ar       1 ****  -0.0502
    8 C7         4.5330    -4.8070    -1.7980 C.ar       1 ****  -0.0312
    9 C8         2.5590    -2.6880     0.6290 C.ar       1 ****  0.0930
   10 N1         3.0390    -1.6020     1.3530 N.ar       1 ****  -0.1891
   11 N2         1.8940    -0.9070     1.5930 N.ar       1 ****  -0.1383
   12 C9         1.6450     0.2640     2.2790 C.2        1 ****  0.0228
   13 C10        0.4270     0.7980     2.4210 C.2        1 ****  0.0125
   14 N3        -0.6850     0.1910     1.8660 N.am       1 ****  -0.2631
   15 C11       -1.9850     0.8680     1.9230 C.3        1 ****  0.0962
   16 C12       -2.1030     2.0060     0.8920 C.2        1 ****  0.2321
   17 O2        -1.1230     2.3700     0.2370 O.2        1 ****  -0.2757
   18 N4        -3.3460     2.6380     0.7750 N.am       1 ****  -0.3006
   19 C13       -4.5450     2.2120     1.4860 C.3        1 ****  0.0030
   20 C14       -3.5370     3.7280    -0.2030 C.3        1 ****  0.0249
   21 C15       -2.7000     4.9750     0.1290 C.3        1 ****  -0.0345
   22 C16       -2.9710     6.1060    -0.8610 C.3        1 ****  -0.0516
   23 C17       -2.7680     5.6510    -2.3040 C.3        1 ****  -0.0532
   24 C18       -3.6110     4.4210    -2.6330 C.3        1 ****  -0.0516
   25 C19       -3.3400     3.2760    -1.6590 C.3        1 ****  -0.0345
   26 C20       -0.5790    -0.9830     1.1170 C.2        1 ****  0.2635
   27 O3        -1.5160    -1.5200     0.5420 O.2        1 ****  -0.2701
   28 C21        0.7820    -1.5370     1.0500 C.ar       1 ****  0.1148
   29 C22        1.1940    -2.6960     0.4720 C.ar       1 ****  0.0316
   30 C23        0.3380    -3.7620    -0.1040 C.3        1 ****  0.0825
   31 O4        -0.2880    -4.4430     0.9950 O.3        1 ****  -0.3386
   32 C24       -1.3740    -5.1680     0.5740 C.ar       1 ****  0.1056
   33 C25       -2.6370    -4.6130     0.8020 C.ar       1 ****  -0.0283
   34 C26       -3.7830    -5.3200     0.4470 C.ar       1 ****  -0.0461
   35 C27       -3.6570    -6.5940    -0.1070 C.ar       1 ****  0.0495
   36 C28       -2.3930    -7.1580    -0.3320 C.ar       1 ****  -0.0158
   37 C29       -1.2390    -6.4540     0.0280 C.ar       1 ****  0.1059
   38 O5         0.0350    -6.9280    -0.1310 O.3        1 ****  -0.3431
   39 C30        0.1870    -8.3390    -0.2960 C.3        1 ****  0.0562
   40 C31        1.6330    -8.7400    -0.2230 C.3        1 ****  -0.0173
   41 C32        2.6980    -7.9320    -0.9160 C.3        1 ****  -0.0479
   42 C33        2.6410    -7.9650     0.5880 C.3        1 ****  -0.0479
   43 C34       -4.8740    -7.3250    -0.4640 C.2        1 ****  0.2901
   44 O6        -5.8010    -6.8230    -1.0750 O.2        1 ****  -0.2609
   45 O7        -4.8730    -8.5940     0.0010 O.3        1 ****  -0.3279
   46 H1         6.4250    -7.8470    -0.0770 H          1 ****  0.0535
   47 H2         7.7210    -6.5890    -0.1390 H          1 ****  0.0535
   48 H3         7.6320    -7.8560    -1.3690 H          1 ****  0.0535
   49 H4         5.8950    -5.8460     1.1430 H          1 ****  0.0650
   50 H5         4.2870    -4.2350     2.0160 H          1 ****  0.0630
   51 H6         2.9870    -3.3300    -1.9870 H          1 ****  0.0630
   52 H7         4.6080    -4.9570    -2.8720 H          1 ****  0.0650
   53 H8         2.5230     0.7430     2.6970 H          1 ****  0.0790
   54 H9         0.2760     1.7360     2.9480 H          1 ****  0.0804
   55 H10       -2.1160     1.2810     2.9290 H          1 ****  0.0574
   56 H11       -2.7730     0.1330     1.7330 H          1 ****  0.0574
   57 H12       -5.0250     3.0910     1.9280 H          1 ****  0.0432
   58 H13       -4.3400     1.5040     2.2890 H          1 ****  0.0432
   59 H14       -5.2270     1.7470     0.7670 H          1 ****  0.0432
   60 H15       -4.5890     4.0360    -0.1160 H          1 ****  0.0505
   61 H16       -2.9290     5.3160     1.1460 H          1 ****  0.0285
   62 H17       -1.6290     4.7480     0.1130 H          1 ****  0.0285
   63 H18       -2.3090     6.9510    -0.6440 H          1 ****  0.0267
   64 H19       -4.0000     6.4650    -0.7320 H          1 ****  0.0267
   65 H20       -3.0270     6.4680    -2.9870 H          1 ****  0.0266
   66 H21       -1.7080     5.4190    -2.4680 H          1 ****  0.0266
   67 H22       -3.3990     4.0910    -3.6560 H          1 ****  0.0267
   68 H23       -4.6750     4.6870    -2.5970 H          1 ****  0.0267
   69 H24       -2.3200     2.9110    -1.8240 H          1 ****  0.0285
   70 H25       -4.0100     2.4370    -1.8820 H          1 ****  0.0285
   71 H26        0.9300    -4.4810    -0.6780 H          1 ****  0.0625
   72 H27       -0.3980    -3.3250    -0.7910 H          1 ****  0.0625
   73 H28       -2.7230    -3.6250     1.2460 H          1 ****  0.0651
   74 H29       -4.7640    -4.8780     0.6040 H          1 ****  0.0632
   75 H30       -2.3330    -8.1280    -0.8130 H          1 ****  0.0659
   76 H31       -0.3550    -8.8720     0.4950 H          1 ****  0.0575
   77 H32       -0.1990    -8.6420    -1.2760 H          1 ****  0.0575
   78 H33        1.7380    -9.8190    -0.2510 H          1 ****  0.0326
   79 H34        2.4150    -7.0090    -1.4090 H          1 ****  0.0270
   80 H35        3.5100    -8.4590    -1.4030 H          1 ****  0.0270
   81 H36        3.4120    -8.5180     1.1100 H          1 ****  0.0270
   82 H37        2.3260    -7.0610     1.0980 H          1 ****  0.0270
   83 H38       -4.1350    -8.8040     0.6050 H          1 ****  0.2258
@<TRIPOS>BOND
    1     1     2 1
    2     1    46 1
    3     1    47 1
    4     1    48 1
    5     2     3 1
    6     3     4 ar
    7     4     5 ar
    8     4    49 1
    9     5     6 ar
   10     5    50 1
   11     6     7 ar
   12     6     9 1
   13     7     8 ar
   14     7    51 1
   15     8     3 ar
   16     8    52 1
   17     9    10 ar
   18    10    11 ar
   19    11    12 1
   20    12    13 2
   21    12    53 1
   22    13    14 1
   23    13    54 1
   24    14    15 1
   25    14    26 am
   26    15    16 1
   27    15    55 1
   28    15    56 1
   29    16    17 2
   30    16    18 am
   31    18    19 1
   32    18    20 1
   33    19    57 1
   34    19    58 1
   35    19    59 1
   36    20    21 1
   37    20    60 1
   38    21    22 1
   39    21    61 1
   40    21    62 1
   41    22    23 1
   42    22    63 1
   43    22    64 1
   44    23    24 1
   45    23    65 1
   46    23    66 1
   47    24    25 1
   48    24    67 1
   49    24    68 1
   50    25    20 1
   51    25    69 1
   52    25    70 1
   53    26    27 2
   54    26    28 1
   55    28    11 ar
   56    28    29 ar
   57    29     9 ar
   58    29    30 1
   59    30    31 1
   60    30    71 1
   61    30    72 1
   62    31    32 1
   63    32    33 ar
   64    33    34 ar
   65    33    73 1
   66    34    35 ar
   67    34    74 1
   68    35    36 ar
   69    35    43 1
   70    36    37 ar
   71    36    75 1
   72    37    32 ar
   73    37    38 1
   74    38    39 1
   75    39    40 1
   76    39    76 1
   77    39    77 1
   78    40    41 1
   79    40    78 1
   80    41    42 1
   81    41    79 1
   82    41    80 1
   83    42    40 1
   84    42    81 1
   85    42    82 1
   86    43    44 2
   87    43    45 1
   88    45    83 1
@<TRIPOS>SUBSTRUCTURE
1   ****   1

