@<TRIPOS>MOLECULE
76
77  81  1  0  0
SMALL
USER_CHARGES
@<TRIPOS>ATOM
    1 C1         4.6690    -2.6830    -1.2440 C.3        1 ****  -0.0301
    2 C2         4.8020    -1.2210    -1.0010 C.2        1 ****  -0.0077
    3 C3         5.8800    -0.4210    -1.0160 C.2        1 ****  0.0307
    4 C4         7.3510    -0.6650    -1.1650 C.3        1 ****  0.0027
    5 C5         7.8480    -2.1100    -1.1540 C.3        1 ****  0.0575
    6 O1         9.2770    -2.0800    -1.0820 O.3        1 ****  -0.3458
    7 C6         9.9170    -3.2770    -0.9330 C.ar       1 ****  0.0750
    8 C7         9.3340    -4.5380    -1.0250 C.ar       1 ****  -0.0300
    9 C8        10.1120    -5.6900    -0.8430 C.ar       1 ****  -0.0375
   10 C9        11.4830    -5.6010    -0.5660 C.ar       1 ****  0.0435
   11 C10       12.0610    -4.3280    -0.4870 C.ar       1 ****  -0.0375
   12 C11       11.2840    -3.1800    -0.6720 C.ar       1 ****  -0.0300
   13 N1        12.2640    -6.7670    -0.3590 N.am       1 ****  -0.2089
   14 C12       12.0600    -7.9560    -1.0190 C.2        1 ****  0.2268
   15 O2        11.2700    -8.2010    -1.9200 O.2        1 ****  -0.2766
   16 C13       12.9730    -9.0020    -0.4490 C.3        1 ****  0.0460
   17 C14       13.9100    -8.2180     0.4470 C.3        1 ****  0.0914
   18 S1        14.2180    -9.0060     2.0670 S.3        1 ****  -0.1385
   19 C15       12.5960    -8.7670     2.8830 C.3        1 ****  0.0715
   20 C16       12.5830    -9.4060     4.2670 C.2        1 ****  0.2259
   21 O3        11.6920   -10.1910     4.5790 O.2        1 ****  -0.2764
   22 N2        13.6060    -8.9530     5.0830 N.am       1 ****  -0.2847
   23 C17       13.8470    -9.2970     6.4270 C.ar       1 ****  0.0330
   24 C18       12.9310    -9.9790     7.2290 C.ar       1 ****  -0.0407
   25 C19       13.2310   -10.2670     8.5630 C.ar       1 ****  -0.0598
   26 C20       14.4500    -9.8720     9.1090 C.ar       1 ****  -0.0499
   27 C21       15.3860    -9.1870     8.3230 C.ar       1 ****  0.0573
   28 C22       15.0680    -8.8970     6.9840 C.ar       1 ****  -0.0285
   29 C23       16.6950    -8.7290     8.9140 C.3        1 ****  0.4160
   30 F1        17.1360    -9.5250     9.9280 F          1 ****  -0.1662
   31 F2        16.6170    -7.4720     9.4310 F          1 ****  -0.1662
   32 F3        17.7080    -8.6950     8.0030 F          1 ****  -0.1662
   33 C24       13.2870    -6.8480     0.5590 C.2        1 ****  0.2388
   34 O4        13.6540    -5.9950     1.3570 O.2        1 ****  -0.2754
   35 C25        5.4700     0.9680    -0.7550 C.2        1 ****  0.2520
   36 O5         6.1920     1.9210    -0.5490 O.2        1 ****  -0.2710
   37 N3         4.1010     0.9370    -0.7460 N.am       1 ****  -0.2640
   38 N4         3.6280    -0.3910    -0.8020 N.am       1 ****  -0.2498
   39 S2         2.6170    -0.8720     0.5270 S.O2       1 ****  1.4416
   40 O6         2.3600    -2.2960     0.5040 O.2        1 ****  -0.5680
   41 O7         3.1410    -0.2320     1.7200 O.2        1 ****  -0.5680
   42 C26        1.0840    -0.0620     0.1300 C.ar       1 ****  -0.0218
   43 C27        0.5560     0.8530     1.0570 C.ar       1 ****  -0.0658
   44 C28       -0.6480     1.5260     0.7980 C.ar       1 ****  -0.0336
   45 C29       -1.1860     2.5010     1.8090 C.3        1 ****  -0.0384
   46 C30       -1.3180     1.2610    -0.4050 C.ar       1 ****  0.0448
   47 Cl1       -2.8040     2.0450    -0.8030 Cl         1 ****  -0.0840
   48 C31       -0.7970     0.3440    -1.3220 C.ar       1 ****  -0.0258
   49 C32        0.4040    -0.3240    -1.0590 C.ar       1 ****  0.0327
   50 Cl2        0.9460    -1.4390    -2.2590 Cl         1 ****  -0.0857
   51 H1         5.4270    -3.0510    -1.9370 H          1 ****  0.0289
   52 H2         3.7060    -2.9180    -1.7070 H          1 ****  0.0289
   53 H3         4.7540    -3.2420    -0.3070 H          1 ****  0.0289
   54 H4         7.6990    -0.1840    -2.0890 H          1 ****  0.0342
   55 H5         7.8720    -0.1370    -0.3540 H          1 ****  0.0342
   56 H6         7.4440    -2.6360    -0.2810 H          1 ****  0.0575
   57 H7         7.5490    -2.6100    -2.0820 H          1 ****  0.0575
   58 H8         8.2790    -4.6680    -1.2400 H          1 ****  0.0650
   59 H9         9.6170    -6.6560    -0.9150 H          1 ****  0.0643
   60 H10       13.1210    -4.2000    -0.2840 H          1 ****  0.0643
   61 H11       11.7500    -2.2000    -0.6030 H          1 ****  0.0650
   62 H12       13.5230    -9.4910    -1.2600 H          1 ****  0.0381
   63 H13       12.3670    -9.7470     0.0740 H          1 ****  0.0381
   64 H14       14.8800    -8.0960    -0.0490 H          1 ****  0.0522
   65 H15       11.8110    -9.2340     2.2820 H          1 ****  0.0480
   66 H16       12.3710    -7.7030     3.0040 H          1 ****  0.0480
   67 H17       14.3340    -8.4240     4.6120 H          1 ****  0.1556
   68 H18       11.9640   -10.2950     6.8470 H          1 ****  0.0642
   69 H19       12.5050   -10.7980     9.1750 H          1 ****  0.0623
   70 H20       14.6670   -10.1000    10.1520 H          1 ****  0.0628
   71 H21       15.7930    -8.3540     6.3790 H          1 ****  0.0648
   72 H22        3.6230     1.6360    -0.1860 H          1 ****  0.1680
   73 H23        1.0800     1.0440     1.9950 H          1 ****  0.0613
   74 H24       -1.2700     3.5000     1.3700 H          1 ****  0.0280
   75 H25       -0.5250     2.5810     2.6790 H          1 ****  0.0280
   76 H26       -2.1660     2.1730     2.1710 H          1 ****  0.0280
   77 H27       -1.3340     0.1480    -2.2480 H          1 ****  0.0692
@<TRIPOS>BOND
    1     1     2 1
    2     1    51 1
    3     1    52 1
    4     1    53 1
    5     2     3 2
    6     3     4 1
    7     3    35 1
    8     4     5 1
    9     4    54 1
   10     4    55 1
   11     5     6 1
   12     5    56 1
   13     5    57 1
   14     6     7 1
   15     7     8 ar
   16     8     9 ar
   17     8    58 1
   18     9    10 ar
   19     9    59 1
   20    10    11 ar
   21    10    13 1
   22    11    12 ar
   23    11    60 1
   24    12     7 ar
   25    12    61 1
   26    13    14 am
   27    14    15 2
   28    14    16 1
   29    16    17 1
   30    16    62 1
   31    16    63 1
   32    17    18 1
   33    17    33 1
   34    17    64 1
   35    18    19 1
   36    19    20 1
   37    19    65 1
   38    19    66 1
   39    20    21 2
   40    20    22 am
   41    22    23 1
   42    22    67 1
   43    23    24 ar
   44    24    25 ar
   45    24    68 1
   46    25    26 ar
   47    25    69 1
   48    26    27 ar
   49    26    70 1
   50    27    28 ar
   51    27    29 1
   52    28    23 ar
   53    28    71 1
   54    29    30 1
   55    29    31 1
   56    29    32 1
   57    33    13 am
   58    33    34 2
   59    35    36 2
   60    35    37 am
   61    37    38 1
   62    37    72 1
   63    38     2 1
   64    38    39 am
   65    39    40 2
   66    39    41 2
   67    39    42 1
   68    42    43 ar
   69    43    44 ar
   70    43    73 1
   71    44    45 1
   72    44    46 ar
   73    45    74 1
   74    45    75 1
   75    45    76 1
   76    46    47 1
   77    46    48 ar
   78    48    49 ar
   79    48    77 1
   80    49    42 ar
   81    49    50 1
@<TRIPOS>SUBSTRUCTURE
1   ****   1

